         456
Au Au   0    -1670.581068    1.1272
 Au          0.06373        -0.15796         0.05318   1
 Au          2.55850         0.17498         1.43284   1
 Au          0.35932         2.01165         1.88598   1
 Au         -1.69257        -2.38810         0.67582   1
 Au         -2.78977         0.15853         0.01197   1
 Au          1.81491         2.07839        -0.56455   1
 Au         -1.66627        -6.31734         7.07111   1
 Au         -2.47829         2.76032        -3.09636   1
 Au         -1.38984        -0.22059         2.51446   1
 Au         -1.35754         0.21745        -2.45285   1
 Au          1.08223         0.09059         3.86422   1
 Au         -1.05036         2.38001        -0.60620   1
 Au         -2.50527         2.34021         1.84688   1
 Au          5.05337         0.50468         2.81640   1
 Au          2.12883         4.27278         1.26854   1
 Au         -3.43637        -4.61104         1.29716   1
 Au         -5.62890         0.48448        -0.01778   1
 Au          5.72818         2.48574        -1.68545   1
 Au          7.92716        -3.28189         4.25847   1
 Au          9.50969        -1.14120         3.55149   1
 Au         -5.97086        -2.46097         7.90373   1
 Au          4.70369        -1.67345         0.92327   1
 Au          1.23921        -6.11016         2.18555   1
 Au         -2.18143         4.91477        -1.23903   1
 Au         -5.39113         2.68596         1.85413   1
 Au          7.87674        -4.73261        -1.33797   1
 Au          6.19710        -5.46996         4.96148   1
 Au         -3.44429         7.02422         3.05346   1
 Au          4.13096        -5.11647       -12.79952   1
 Au          2.87204         2.37772         3.25106   1
 Au          0.80314        -2.06581         2.05126   1
 Au         -0.25630        -2.31362        -1.79642   1
 Au         -2.07032        -2.17630         7.02094   1
 Au          5.90701         0.78183         6.49370   1
 Au          5.45702        -3.56259         2.98033   1
 Au         -0.77228         4.55674         1.22898   1
 Au          0.68378         4.59778        -1.23072   1
 Au         -9.33168        -6.07524        -0.63784   1
 Au         -0.86211         4.14256         6.20574   1
 Au         -3.68735         4.90099         1.23149   1
 Au         -4.55085        -2.06979         0.64634   1
 Au         -8.77169        -1.32823        -1.89662   1
 Au         -4.21055         0.54910        -2.48399   1
 Au         -3.12739        -2.44683         3.13867   1
 Au         -4.22285         0.10461         2.46695   1
 Au          0.48521        -4.21806         0.19798   1
 Au          0.89337        -3.81478        10.00762   1
 Au         -0.95263        -4.29156         2.68647   1
 Au         -0.65075        -2.13497         4.53014   1
 Au         -5.06744         5.26906        -1.24738   1
 Au         -5.35379         3.12157        -3.11251   1
 Au          4.09349        -3.60316         5.49657   1
 Au         -0.02979         2.18447         8.05693   1
 Au         -5.76192        -0.70615        -4.54107   1
 Au         -1.12651         1.97331         4.35330   1
 Au          7.77981        -5.48275        -4.10445   1
 Au          3.88163         6.48220         0.65024   1
 Au         -1.25343        -6.44242         0.82129   1
 Au          1.18904         9.24507        -0.91803   1
 Au          8.15489         2.02731        -3.10489   1
 Au          8.58608        -7.44070        -2.16786   1
 Au         -9.89978         1.28674        -2.56262   1
 Au         -7.08513         0.45079         2.44773   1
 Au         -0.70109         3.13666       -14.29181   1
 Au          1.54647        -3.94312         4.05405   1
 Au         -0.44979         6.02115       -10.40682   1
 Au          2.86421       -10.78061       -10.34256   1
 Au          6.79467        -8.81278         1.27744   1
 Au          6.04298         4.60326         0.17832   1
 Au         -1.45618        -8.08658       -12.81526   1
 Au          0.31138       -11.49786        -6.31167   1
 Au          2.75643        -9.82516         6.01166   1
 Au         -7.55224         5.18798       -12.46144   1
 Au          5.33088         2.67488         4.60526   1
 Au          4.62246        -5.59844         7.30553   1
 Au         -0.20849        -2.35337       -15.16780   1
 Au         -3.57682        -2.24238         9.27218   1
 Au          2.22943        -8.27699        -9.58811   1
 Au         10.26486        -3.69589         2.79753   1
 Au          3.31654        -1.75062         3.43518   1
 Au          2.23070        -1.98383        -0.43206   1
 Au          1.49213        -0.08122        -2.42181   1
 Au          3.97607         0.24993        -1.05802   1
 Au          8.89324         0.12711        -1.11845   1
 Au          6.46273         0.56868         0.30248   1
 Au         -1.64623         9.54816        -0.93357   1
 Au          2.95044        -7.73672         7.81294   1
 Au          0.48841       -10.53320        -8.99249   1
 Au         -7.72383        -4.33202         3.70782   1
 Au          1.18225        -6.87695        -0.60584   1
 Au          2.98023        -3.89733         1.56282   1
 Au          2.31932         5.66253       -10.30826   1
 Au         -4.74989       -11.54836        -0.75424   1
 Au         -0.27203         8.76854        -6.26759   1
 Au          0.96224         6.76974         0.59152   1
 Au         -0.45916         7.16912        -1.85907   1
 Au          4.32362         2.42936         0.81446   1
 Au          7.38482         4.63180        -2.30612   1
 Au          6.67830       -10.27902        -4.30390   1
 Au         -2.21255       -10.50907         3.34740   1
 Au          7.81600        -5.24241        -9.57773   1
 Au          0.11998       -12.35588        -3.62982   1
 Au         -9.50401         3.32516        -0.65041   1
 Au          6.02709        -8.46794        -6.32729   1
 Au         -0.21423         9.52561        -3.38990   1
 Au         -6.31952        -4.29727         1.27782   1
 Au         -2.15659        -5.51690       -12.04664   1
 Au         -3.60201        -6.68902       -13.98004   1
 Au         -3.73213        -6.75597        -0.55122   1
 Au          2.57039         9.18077        -3.33336   1
 Au         10.85922        -6.27230         1.97716   1
 Au         -6.27198         3.71943       -14.37978   1
 Au         -4.88051        -4.67406         3.76323   1
 Au         -4.40211         9.70350        -0.93564   1
 Au         -8.46220         0.82497        -0.04556   1
 Au         -7.42844        -2.14953         5.53756   1
 Au         -6.01521        -2.13148         3.11198   1
 Au          6.18648        -7.48573        -9.02278   1
 Au          9.20044        -9.20094        -0.06597   1
 Au         -6.59706        -6.44944        -0.58664   1
 Au         -3.10635        -2.00446        -1.82677   1
 Au         -1.94438        -8.44220         5.23905   1
 Au         -2.70504        -6.53190         3.32398   1
 Au         -0.22680        -6.19988         4.68442   1
 Au          9.62413        -1.76552         0.85960   1
 Au         10.21853        -5.18428        -2.73986   1
 Au         -2.39758        -4.36885         5.18618   1
 Au          2.54398       -12.69305        -5.07030   1
 Au         -3.91421         2.71072        -0.62580   1
 Au         -6.44936         0.98670       -14.51817   1
 Au         -7.06035         0.91260        -2.51636   1
 Au         -5.16296         4.09659        -5.77729   1
 Au         -6.89794         1.88783        -5.16531   1
 Au         -6.77368         3.06159        -0.63193   1
 Au         -9.12181        -3.95032         1.21509   1
 Au          8.83836         0.81379         1.68283   1
 Au         -3.64819         4.41999         6.03826   1
 Au         -9.16678         3.98034       -10.54850   1
 Au         -4.78279         5.07383       -12.49446   1
 Au         -3.62779         5.30820        -3.72992   1
 Au         -4.02831         1.52915        -5.15483   1
 Au         -1.78564        -3.57857        -3.84974   1
 Au          8.51634        -6.60364         0.66569   1
 Au         -5.46427        -8.97491         0.06337   1
 Au          3.81145         2.58699         6.95212   1
 Au          5.14762       -10.28726         4.59951   1
 Au         -9.82515         0.73317         2.35802   1
 Au         -6.08506         6.50935       -10.46985   1
 Au          4.57913        -8.64129       -11.00788   1
 Au         -5.18534        -6.83695         1.92447   1
 Au         -0.26136         9.14344         1.51277   1
 Au          4.40633        -8.45056         2.75057   1
 Au        -10.79219         1.79274        -9.87111   1
 Au         -5.08184         2.17495       -12.50183   1
 Au          4.92659       -12.38905        -3.67840   1
 Au         -0.55671        -9.13691         0.00908   1
 Au          1.36676         2.27635         5.66629   1
 Au         -6.50148         5.18362         1.20770   1
 Au          9.22807        -8.47428         2.59969   1
 Au          2.67945       -10.67528         3.33515   1
 Au          0.20638       -10.99951         1.96708   1
 Au         -8.82588        -1.77382         3.06194   1
 Au         -3.01954         9.75774        -3.37651   1
 Au          7.73093        -6.27117        -6.95154   1
 Au          6.65583         6.44391        -4.24331   1
 Au         -6.79801         2.59464         4.28473   1
 Au         -7.72307         5.31000        -8.53976   1
 Au          2.39420         6.39950         3.07574   1
 Au          2.25596        -5.83990         6.01014   1
 Au         -7.02349         0.00699         7.21919   1
 Au         -5.66237         0.06754         4.91165   1
 Au          7.46353         0.76360         4.14667   1
 Au          6.26014        -6.44341       -11.55086   1
 Au          0.09975        -4.01575         6.58997   1
 Au         -4.42364        -8.73135         3.89180   1
 Au          2.15464         0.44520         7.66324   1
 Au         -2.23554         4.53934         3.67794   1
 Au          3.12017         4.52504         5.05988   1
 Au         -6.23082         6.57140        -6.48729   1
 Au        -11.13203         1.10165        -0.09761   1
 Au          1.93345        -8.81620         1.36829   1
 Au         -4.56160        -2.48092         5.59437   1
 Au         -0.62203        -9.83593        -2.80286   1
 Au          5.19797         5.34098        -6.34029   1
 Au          6.77596         2.69453         2.16980   1
 Au          1.86944        -9.54926        -1.42741   1
 Au          9.58914        -2.51845        -1.95221   1
 Au         -3.32418         7.43997        -1.88285   1
 Au          2.92714        -4.63221        -1.23247   1
 Au         -6.56256        -6.84218         4.30741   1
 Au         -5.09915         4.79806         3.67731   1
 Au         -8.43234         0.36678         4.83297   1
 Au          3.68155        -6.55099         0.75313   1
 Au         -7.80286         5.53590        -1.26587   1
 Au          4.31899        -9.90743        -2.87327   1
 Au          1.97974        -8.01450         4.15821   1
 Au          4.59332         4.56504         2.62925   1
 Au         -7.09008       -11.06359         0.64205   1
 Au          2.68984       -11.79072        -7.75546   1
 Au         -4.55390       -10.67013        -3.43844   1
 Au         -5.40092        -1.50614       -13.96617   1
 Au          3.73415        -5.76764         3.59393   1
 Au         -0.50866        -8.35789         2.79665   1
 Au          0.26950       -10.19147         4.69924   1
 Au          7.44819       -11.33190         0.51546   1
 Au         -1.79232         7.59955        -8.35929   1
 Au         -1.86681         7.48881        -4.35009   1
 Au          2.53365         8.74948         1.45886   1
 Au          5.91073         2.67667        -7.15629   1
 Au          1.94145        -3.73740       -14.02441   1
 Au          2.44383        -7.32082       -12.26455   1
 Au          6.10102        -6.97352        -0.74856   1
 Au          3.75026         6.85831        -8.26266   1
 Au          4.46419        -9.68692        -8.41084   1
 Au         -7.96343         2.44708       -12.59909   1
 Au         -1.94150         7.09779         0.62372   1
 Au          0.52816        -8.13383         6.59417   1
 Au         -4.57474         7.78256        -8.40324   1
 Au          2.50562         8.40111        -6.25775   1
 Au         -3.07846         9.40340         1.48100   1
 Au         -4.27586        -0.26139         7.45065   1
 Au          8.12044         2.71984        -0.32296   1
 Au         -1.50157        -4.22688         8.88123   1
 Au         -0.42561         6.75253         3.06854   1
 Au         -9.45942         3.14007        -7.89735   1
 Au         -0.34949         0.06565         6.34819   1
 Au         -3.06823         9.00334        -6.28654   1
 Au         -6.29315        -4.66314         6.12286   1
 Au         -8.01554        -6.49536         1.87149   1
 Au         -7.41653        -1.75008         0.62662   1
 Au         10.83546        -6.98701        -0.68118   1
 Au         -1.69590        -9.15206       -10.23461   1
 Au         -5.36641         2.21169         6.66116   1
 Au        -10.10499        -1.66612        -6.60989   1
 Au         10.03935        -5.85434        -5.49306   1
 Au        -11.28599        -0.05280        -4.63045   1
 Au          6.90878        -8.10583         4.10379   1
 Au        -10.21737        -1.40158         0.56527   1
 Au         -7.69253        -3.90405        -1.24062   1
 Au         -8.19824         2.97146         1.81419   1
 Au          0.87448         6.19846         5.51571   1
 Au          8.61286        -5.88975         3.50569   1
 Au         -1.76453         8.94493         3.80765   1
 Au         -2.55993         1.93919         6.83823   1
 Au         -5.93054        -6.28038       -12.60038   1
 Au         -2.27761       -11.31304         0.60431   1
 Au         -3.96007         2.30393         4.31242   1
 Au         10.31928        -4.38609         0.03463   1
 Au         -3.92328        -4.41213         7.54403   1
 Au         -4.69552       -10.82176         2.00201   1
 Au          9.30603        -4.05352        -7.47238   1
 Au          6.85713        -9.65168        -1.55501   1
 Au         -6.72245        -9.23300        -4.64646   1
 Au         -1.92923       -10.12993        -7.55180   1
 Au          5.30942        -5.80764        -5.49069   1
 Au         -8.09907        -7.69661        -2.65609   1
 Au         -9.21244        -5.15028        -3.30256   1
 Au          1.83148       -10.22320        -4.24548   1
 Au         -2.99082        -8.68090         1.44222   1
 Au         -4.34842        -4.10922       -13.35624   1
 Au          2.60521        -3.71187         7.88536   1
 Au          5.28362         6.52233        -1.82495   1
 Au          5.82396        -1.41588         4.86354   1
 Au          1.64640         4.32214         7.38049   1
 Au         -6.85933        -0.09497       -12.01101   1
 Au          1.85797        -1.80098         5.90493   1
 Au          2.58752       -12.13949        -2.26835   1
 Au         -2.82167        -0.25652         4.99791   1
 Au         -3.04792        -9.42649        -1.36798   1
 Au          6.06575        -7.71315        -3.50863   1
 Au         -3.71905         0.65780       -14.54149   1
 Au          0.82605        -5.98048         8.39469   1
 Au         -8.54622        -2.25554       -11.22754   1
 Au          4.36621        -9.22447        -0.08680   1
 Au          3.91367         8.81259        -0.89100   1
 Au         -3.28874         6.34245       -10.43642   1
 Au         -6.49267         5.68601        -3.76850   1
 Au        -10.42120        -3.51609        -1.29196   1
 Au          4.51493        -7.70903         5.54238   1
 Au         -8.19893         3.49368        -3.14554   1
 Au         -1.16298        -2.06039        10.43328   1
 Au         -7.96918         4.42014        -5.86079   1
 Au          5.07176       -11.77043        -0.91272   1
 Au         -1.90732         6.63503         5.39004   1
 Au          5.08203       -11.10056         1.89392   1
 Au         -8.23528        -8.62426         0.01577   1
 Au         -2.63986        -1.90962       -13.98033   1
 Au          0.47987        -1.75486         8.33431   1
 Au        -11.44336        -0.93946        -1.95868   1
 Au          7.48887       -10.61618         3.16959   1
 Au         -6.85468        -9.00751         2.47831   1
 Au          3.92815        -0.48099        -3.85324   1
 Au         -5.94273        -1.67302        -1.86128   1
 Au         -7.52201        -2.95370        -3.93563   1
 Au          7.33566         3.91072        -5.05831   1
 Au         -2.00036        -4.54111        -1.17106   1
 Au         -1.30966        -7.18510        -1.97861   1
 Au         -1.77062        -0.01276         8.74580   1
 Au         -6.09979         7.73309        -1.90422   1
 Au          4.24534        -1.37293         7.20021   1
 Au          7.89937        -3.97490         1.50165   1
 Au         -9.68962         2.19106        -5.24604   1
 Au          2.63361       -11.42274         0.52162   1
 Au         -2.12172       -11.09291        -4.87459   1
 Au         -4.83136         7.42588         0.58351   1
 Au          3.56122         0.43131         5.22263   1
 Au          6.14160        -6.18990         2.18098   1
 Au          8.40611        -8.07096        -4.91683   1
 Au         -4.15099        -6.57435         5.73055   1
 Au         -1.56274        -2.59878        -6.52014   1
 Au          4.18842         0.49435        -6.56922   1
 Au          0.19522        -0.34921        -7.15972   1
 Au         -3.31822        -4.84273        -5.88731   1
 Au         -3.08339        -3.86365        -8.55446   1
 Au          0.88717        -2.99195        -7.95882   1
 Au         -1.15655         1.19837        -5.13407   1
 Au         -0.88543        -5.26438        -7.32357   1
 Au         -4.44167        -2.30024        -6.56228   1
 Au          0.65897        -3.99214        -5.29176   1
 Au         -4.84628        -4.22553        -1.20433   1
 Au         -1.33304        -1.61743        -9.20003   1
 Au         -2.68804        -0.06233        -7.18277   1
 Au          3.57626         4.32812        -1.17445   1
 Au          1.97402         1.89188        -7.81058   1
 Au         -5.06598        -7.08670        -5.27842   1
 Au         -4.58440        -5.09801       -10.62295   1
 Au          3.33561        -3.39677        -9.42634   1
 Au         -2.27287         3.74511        -5.77525   1
 Au         -0.21315        -7.93522        -8.16401   1
 Au         -9.00494        -4.21323        -5.98003   1
 Au          2.86583        -5.36457        -4.04728   1
 Au          7.19513        -2.07762        -0.51517   1
 Au         -1.08803        -0.65611       -11.89342   1
 Au         -5.27787         1.18355        -9.86394   1
 Au          2.34451         5.63706        -6.34743   1
 Au          3.49273         3.12698        -5.75968   1
 Au          2.66197        -0.75148        -8.61610   1
 Au          0.99980         7.18479        -4.32736   1
 Au          0.59556         3.41900        -5.75131   1
 Au          6.36693        -0.89715        -5.28952   1
 Au          4.87045        -2.15415        -7.38121   1
 Au          2.41872        -1.74447        -5.92160   1
 Au          5.68038         1.75436        -4.47803   1
 Au         -0.03116        -1.34049        -4.48179   1
 Au          0.44934         0.63284        -9.85285   1
 Au          1.13570        -2.01325       -10.65586   1
 Au         -0.92455         2.18252        -7.80557   1
 Au         -3.78526         2.49281        -7.82415   1
 Au         -2.44267         0.90520        -9.83923   1
 Au         -4.84012        -6.11423        -7.94966   1
 Au         -2.64001        -7.53157        -6.72859   1
 Au         -2.41084        -6.55360        -9.39271   1
 Au         -6.20757        -4.54470        -5.95791   1
 Au         -5.97525        -3.57463        -8.64377   1
 Au         -1.09734        -6.23955        -4.66326   1
 Au          1.34636        -6.64938        -6.10048   1
 Au         -3.53087        -5.81025        -3.22289   1
 Au         -2.90616        -1.03087        -4.50942   1
 Au         -2.88526        -2.87401       -11.27166   1
 Au         -0.65780        -4.25674        -9.97279   1
 Au         -4.21012        -1.35600        -9.25009   1
 Au         -7.05496        -1.04901        -9.29250   1
 Au          1.54782        -5.64000        -8.74009   1
 Au         -5.54096         0.24966        -7.20536   1
 Au          4.95245         4.40931        -3.67457   1
 Au          3.72794         4.09459        -8.42492   1
 Au         -5.27619        -8.04508        -2.61458   1
 Au         -4.13386        -8.74249        -8.78609   1
 Au          3.52568        -2.48364       -12.09193   1
 Au         -8.09759         1.50925        -9.90777   1
 Au          2.04292        -9.29607        -6.93549   1
 Au         -8.60203        -0.36866        -4.56991   1
 Au          4.68359        -2.39524        -1.86588   1
 Au         -2.31969       -11.95774        -2.19141   1
 Au          0.82540         4.40955       -12.34272   1
 Au        -10.31254        -2.59326        -3.94636   1
 Au          1.04137         7.27938        -8.34427   1
 Au        -11.07947         0.87950        -7.26954   1
 Au          7.03264        -3.57468        -6.09593   1
 Au          6.59482         0.03162        -7.97099   1
 Au          4.39546         1.42112        -9.21886   1
 Au          5.06432        -1.21046       -10.03533   1
 Au          8.02403         1.26405        -5.86400   1
 Au          3.22834         2.15271        -3.04387   1
 Au         -0.73647         4.96145        -3.70715   1
 Au         -4.75638         7.83317        -4.38526   1
 Au          2.42449         6.81818        -1.86362   1
 Au          0.64200         4.19308         3.70574   1
 Au          3.92739         6.96866        -4.33088   1
 Au          7.26513        -2.61954        -8.78262   1
 Au          5.53731        -4.82984        -8.17850   1
 Au          3.10546        -4.39924        -6.72829   1
 Au          5.34885        -5.03737        -2.68229   1
 Au          8.69668        -1.39605        -6.67566   1
 Au          9.52609        -3.26920        -4.73399   1
 Au          2.13411         4.66924        -3.69106   1
 Au          6.45744        -0.16022        -2.49493   1
 Au          8.84784        -0.61368        -3.92659   1
 Au          4.60888        -3.12990        -4.66460   1
 Au          5.42398        -4.32183         0.12675   1
 Au          7.14224        -2.80508        -3.30749   1
 Au          2.20650         2.84212       -10.47321   1
 Au          0.68292         1.57174       -12.51487   1
 Au         -1.89473        -4.55412       -14.63516   1
 Au         -0.42687        -3.30470       -12.65823   1
 Au          2.87098         0.16475       -11.26401   1
 Au          0.83317         4.41467        -8.43131   1
 Au         -3.53863         3.49632       -10.50130   1
 Au         -0.53101         5.98224        -6.41063   1
 Au         -4.90728         5.04141        -8.47055   1
 Au         -2.03952         4.75884        -8.46338   1
 Au         -2.21650         1.86409       -12.49183   1
 Au         -6.39768         3.73856       -10.51761   1
 Au         -0.68111         3.15913       -10.47799   1
 Au         -6.49957        -8.26822        -7.32058   1
 Au         -6.26760        -7.27303       -10.00514   1
 Au         -4.35399        -9.71409        -6.11626   1
 Au          1.77105        -4.69668       -11.45151   1
 Au         -7.40954        -4.80427       -10.67064   1
 Au          0.03995        -6.91031       -10.83558   1
 Au          1.33778        -1.08650       -13.31246   1
 Au         -6.41607        -5.50251        -3.27991   1
 Au         -7.88992        -6.75080        -5.33820   1
 Au         -9.88495        -0.73947        -9.26521   1
 Au         -8.78129        -3.27730        -8.65300   1
 Au         -7.66733        -5.79492        -8.01940   1
 Au         -2.84791        -8.49454        -4.06117   1
 Au          2.18225        -2.71827        -3.23098   1
 Au         -0.41548        -8.90826        -5.50075   1
 Au          3.58065        -8.01799        -4.87468   1
 Au          1.12030        -7.59197        -3.41815   1
 Au          3.60112        -7.27238        -2.05755   1
 Au          7.15283        -1.35531         2.30630   1
 Au         -7.31253        -2.00087        -6.61027   1
 Au          0.38646         2.43810        -3.07257   1
 Au         -4.65562        -3.26448        -3.88837   1
 Au          0.43402        -4.95550        -2.60284   1
 Au          5.72507        -3.84595       -10.85479   1
 Au          0.25893        -5.94491       -13.48819   1
 Au          4.30018       -10.65538        -5.73278   1
 Au         -0.90682         0.28988       -14.47351   1
 Au         -3.89136        -7.77139       -11.45603   1
 Au         -5.77167        -2.62729       -11.39773   1
 Au         -9.58342         0.25282       -11.80476   1
 Au         -6.93595       -10.19163        -1.97659   1
 Au         -1.95080         4.76862       -12.45599   1
 Au         -3.48464         3.44443       -14.38526   1
 Au         -3.97694        -0.37493       -11.92954   1
 Au          3.96033        -6.06447       -10.20392   1
 Au          0.14898       -11.73705        -0.83650   1
 Au          3.81715        -7.07855        -7.53615   1
 Au          0.72678        -9.46472       -11.58769   1
 Au         -3.41268         6.29095        -6.40781   1
 Au         -8.38617         0.57358        -7.23875   1
 Au          1.72467         0.89465        -5.11430   1
 Au         -6.65345         2.82505        -7.82922   1
